
     RDKit          3D

 50 54  0  0  0  0  0  0  0  0999 V2000
   -5.6041    2.5420   -1.6865 C   0  0  0  0  0  0  0  0  0  0  0  0
   -5.4294    1.4518   -0.7336 N   0  0  0  0  0  0  0  0  0  0  0  0
   -4.4192    1.7947    0.2862 C   0  0  0  0  0  0  0  0  0  0  0  0
   -3.7491    0.4221    0.0514 C   0  0  0  0  0  0  0  0  0  0  0  0
   -4.5425    0.4059   -1.2829 C   0  0  0  0  0  0  0  0  0  0  0  0
   -2.2406    0.4196   -0.0732 C   0  0  0  0  0  0  0  0  0  0  0  0
   -1.9537   -0.9417    0.2887 N   0  0  0  0  0  0  0  0  0  0  0  0
   -0.6818   -1.5405    0.1067 C   0  0  0  0  0  0  0  0  0  0  0  0
    0.4680   -0.7396    0.0922 C   0  0  0  0  0  0  0  0  0  0  0  0
    1.7656   -1.2964   -0.0658 C   0  0  0  0  0  0  0  0  0  0  0  0
    2.9710   -0.5641   -0.0592 C   0  0  0  0  0  0  0  0  0  0  0  0
    2.9199    0.8352    0.1761 N   0  0  0  0  0  0  0  0  0  0  0  0
    3.9534    1.7903    0.0075 C   0  0  0  0  0  0  0  0  0  0  0  0
    4.9342    1.6839   -0.9857 C   0  0  0  0  0  0  0  0  0  0  0  0
    5.8952    2.6870   -1.1576 C   0  0  0  0  0  0  0  0  0  0  0  0
    5.8745    3.8257   -0.3522 C   0  0  0  0  0  0  0  0  0  0  0  0
    4.8851    3.9632    0.6186 C   0  0  0  0  0  0  0  0  0  0  0  0
    4.8479    5.3801    1.5960 Cl  0  0  0  0  0  0  0  0  0  0  0  0
    3.9314    2.9595    0.7857 C   0  0  0  0  0  0  0  0  0  0  0  0
    2.9642    3.0919    1.7115 F   0  0  0  0  0  0  0  0  0  0  0  0
    4.1633   -1.1524   -0.2603 N   0  0  0  0  0  0  0  0  0  0  0  0
    4.1595   -2.4749   -0.4434 C   0  0  0  0  0  0  0  0  0  0  0  0
    3.0820   -3.2658   -0.4503 N   0  0  0  0  0  0  0  0  0  0  0  0
    1.9002   -2.6742   -0.2628 C   0  0  0  0  0  0  0  0  0  0  0  0
    0.7573   -3.4601   -0.2882 C   0  0  0  0  0  0  0  0  0  0  0  0
   -0.5226   -2.9203   -0.0958 C   0  0  0  0  0  0  0  0  0  0  0  0
   -1.6343   -3.6946   -0.3221 O   0  0  0  0  0  0  0  0  0  0  0  0
   -1.6834   -4.8730    0.4807 C   0  0  0  0  0  0  0  0  0  0  0  0
   -3.2306   -5.6952    0.1694 Cl  0  0  0  0  0  0  0  0  0  0  0  0
   -2.9838   -1.4797    1.0488 C   0  0  0  0  0  0  0  0  0  0  0  0
   -2.9699   -2.4786    1.7489 O   0  0  0  0  0  0  0  0  0  0  0  0
   -4.0587   -0.6418    0.9825 O   0  0  0  0  0  0  0  0  0  0  0  0
   -4.6599    2.9206   -2.0964 H   0  0  0  0  0  0  0  0  0  0  0  0
   -6.2274    2.2099   -2.5237 H   0  0  0  0  0  0  0  0  0  0  0  0
   -6.1236    3.3780   -1.2060 H   0  0  0  0  0  0  0  0  0  0  0  0
   -3.7758    2.6542    0.0577 H   0  0  0  0  0  0  0  0  0  0  0  0
   -4.8341    1.9383    1.2892 H   0  0  0  0  0  0  0  0  0  0  0  0
   -5.0549   -0.5367   -1.5028 H   0  0  0  0  0  0  0  0  0  0  0  0
   -3.9575    0.6876   -2.1675 H   0  0  0  0  0  0  0  0  0  0  0  0
   -1.8796    0.6488   -1.0801 H   0  0  0  0  0  0  0  0  0  0  0  0
   -1.7817    1.0868    0.6647 H   0  0  0  0  0  0  0  0  0  0  0  0
    0.3786    0.3347    0.2265 H   0  0  0  0  0  0  0  0  0  0  0  0
    2.4272    1.0114    1.0508 H   0  0  0  0  0  0  0  0  0  0  0  0
    4.9604    0.8184   -1.6436 H   0  0  0  0  0  0  0  0  0  0  0  0
    6.6562    2.5781   -1.9274 H   0  0  0  0  0  0  0  0  0  0  0  0
    6.6234    4.6009   -0.4927 H   0  0  0  0  0  0  0  0  0  0  0  0
    5.1208   -2.9525   -0.6000 H   0  0  0  0  0  0  0  0  0  0  0  0
    0.8811   -4.5152   -0.5182 H   0  0  0  0  0  0  0  0  0  0  0  0
   -0.8990   -5.5820    0.2031 H   0  0  0  0  0  0  0  0  0  0  0  0
   -1.6232   -4.6414    1.5487 H   0  0  0  0  0  0  0  0  0  0  0  0
  1  2  1  0
  2  3  1  0
  3  4  1  0
  4  5  1  0
  4  6  1  0
  6  7  1  0
  7  8  1  0
  8  9  2  0
  9 10  1  0
 10 11  2  0
 11 12  1  0
 12 13  1  0
 13 14  2  0
 14 15  1  0
 15 16  2  0
 16 17  1  0
 17 18  1  0
 17 19  2  0
 19 20  1  0
 11 21  1  0
 21 22  2  0
 22 23  1  0
 23 24  2  0
 24 25  1  0
 25 26  2  0
 26 27  1  0
 27 28  1  0
 28 29  1  0
  7 30  1  0
 30 31  2  0
 30 32  1  0
  5  2  1  0
 26  8  1  0
 32  4  1  0
 24 10  1  0
 19 13  1  0
  1 33  1  0
  1 34  1  0
  1 35  1  0
  3 36  1  0
  3 37  1  0
  5 38  1  0
  5 39  1  0
  6 40  1  0
  6 41  1  0
  9 42  1  0
 12 43  1  0
 14 44  1  0
 15 45  1  0
 16 46  1  0
 22 47  1  0
 25 48  1  0
 28 49  1  0
 28 50  1  0
M  END
$$$$
