
     RDKit          3D

 66 70  0  0  0  0  0  0  0  0999 V2000
   -9.5301    1.4160   -0.1901 C   0  0  0  0  0  0  0  0  0  0  0  0
   -8.2655    1.2371    0.2168 C   0  0  0  0  0  0  0  0  0  0  0  0
   -7.6967   -0.1360    0.2710 C   0  0  0  0  0  0  0  0  0  0  0  0
   -8.4405   -1.1096    0.4002 O   0  0  0  0  0  0  0  0  0  0  0  0
   -6.3158   -0.2600    0.1773 N   0  0  0  0  0  0  0  0  0  0  0  0
   -5.3890    0.7738   -0.2854 C   0  0  0  0  0  0  0  0  0  0  0  0
   -4.4863    0.2378   -1.3972 C   0  0  0  0  0  0  0  0  0  0  0  0
   -3.6959   -1.0279   -0.9789 C   0  0  0  0  0  0  0  0  0  0  0  0
   -4.2557   -1.6415    0.3282 C   0  0  0  0  0  0  0  0  0  0  0  0
   -5.7779   -1.6054    0.3613 C   0  0  0  0  0  0  0  0  0  0  0  0
   -3.7859   -2.0693   -2.1530 C   0  0  0  0  0  0  0  0  0  0  0  0
   -2.8196   -3.1575   -2.0591 N   0  0  0  0  0  0  0  0  0  0  0  0
   -1.4851   -2.9256   -1.7826 C   0  0  0  0  0  0  0  0  0  0  0  0
   -0.6198   -3.7492   -2.0610 O   0  0  0  0  0  0  0  0  0  0  0  0
   -1.2148   -1.6422   -1.1499 C   0  0  0  0  0  0  0  0  0  0  0  0
    0.0089   -1.0488   -0.7629 C   0  0  0  0  0  0  0  0  0  0  0  0
   -0.2594    0.1870   -0.1899 C   0  0  0  0  0  0  0  0  0  0  0  0
    0.6781    1.1774    0.3432 C   0  0  0  0  0  0  0  0  0  0  0  0
    0.3824    2.5158    0.4529 C   0  0  0  0  0  0  0  0  0  0  0  0
    1.4057    3.3039    0.9143 C   0  0  0  0  0  0  0  0  0  0  0  0
    2.6224    2.8315    1.2358 N   0  0  0  0  0  0  0  0  0  0  0  0
    2.8255    1.5126    1.1050 C   0  0  0  0  0  0  0  0  0  0  0  0
    4.0541    0.9233    1.3662 N   0  0  0  0  0  0  0  0  0  0  0  0
    5.3168    1.3913    1.7457 C   0  0  0  0  0  0  0  0  0  0  0  0
    5.5753    2.7151    2.1192 C   0  0  0  0  0  0  0  0  0  0  0  0
    6.8650    3.1273    2.4860 C   0  0  0  0  0  0  0  0  0  0  0  0
    7.9213    2.2196    2.4845 C   0  0  0  0  0  0  0  0  0  0  0  0
    7.6941    0.8999    2.1030 C   0  0  0  0  0  0  0  0  0  0  0  0
    6.4126    0.5023    1.7109 C   0  0  0  0  0  0  0  0  0  0  0  0
    6.2334   -0.8138    1.3455 O   0  0  0  0  0  0  0  0  0  0  0  0
    6.2373   -0.9772   -0.0872 C   0  0  0  0  0  0  0  0  0  0  0  0
    5.2733   -2.1187   -0.4096 C   0  0  0  0  0  0  0  0  0  0  0  0
    7.6452   -1.3264   -0.5708 C   0  0  0  0  0  0  0  0  0  0  0  0
    1.8781    0.6677    0.6748 N   0  0  0  0  0  0  0  0  0  0  0  0
   -1.6344    0.3269   -0.1883 N   0  0  0  0  0  0  0  0  0  0  0  0
   -2.2169   -0.7589   -0.7894 C   0  0  0  0  0  0  0  0  0  0  0  0
   -9.9816    2.4053   -0.2080 H   0  0  0  0  0  0  0  0  0  0  0  0
  -10.1461    0.5745   -0.5085 H   0  0  0  0  0  0  0  0  0  0  0  0
   -7.6706    2.0749    0.5584 H   0  0  0  0  0  0  0  0  0  0  0  0
   -4.7944    1.1000    0.5750 H   0  0  0  0  0  0  0  0  0  0  0  0
   -5.9248    1.6461   -0.6695 H   0  0  0  0  0  0  0  0  0  0  0  0
   -5.1378    0.0017   -2.2519 H   0  0  0  0  0  0  0  0  0  0  0  0
   -3.8188    1.0366   -1.7447 H   0  0  0  0  0  0  0  0  0  0  0  0
   -3.9109   -2.6758    0.4581 H   0  0  0  0  0  0  0  0  0  0  0  0
   -3.8754   -1.0873    1.1999 H   0  0  0  0  0  0  0  0  0  0  0  0
   -6.1391   -1.9930    1.3225 H   0  0  0  0  0  0  0  0  0  0  0  0
   -6.1975   -2.2518   -0.4194 H   0  0  0  0  0  0  0  0  0  0  0  0
   -3.5764   -1.5717   -3.1094 H   0  0  0  0  0  0  0  0  0  0  0  0
   -4.7819   -2.5179   -2.2261 H   0  0  0  0  0  0  0  0  0  0  0  0
   -2.9633   -3.9903   -2.6136 H   0  0  0  0  0  0  0  0  0  0  0  0
    0.9956   -1.4762   -0.8932 H   0  0  0  0  0  0  0  0  0  0  0  0
   -0.5659    2.9424    0.1658 H   0  0  0  0  0  0  0  0  0  0  0  0
    1.2840    4.3768    1.0280 H   0  0  0  0  0  0  0  0  0  0  0  0
    3.9891   -0.0798    1.2583 H   0  0  0  0  0  0  0  0  0  0  0  0
    4.7774    3.4512    2.1484 H   0  0  0  0  0  0  0  0  0  0  0  0
    7.0346    4.1580    2.7846 H   0  0  0  0  0  0  0  0  0  0  0  0
    8.9169    2.5394    2.7821 H   0  0  0  0  0  0  0  0  0  0  0  0
    8.5080    0.1805    2.1060 H   0  0  0  0  0  0  0  0  0  0  0  0
    5.8786   -0.0767   -0.6064 H   0  0  0  0  0  0  0  0  0  0  0  0
    5.1941   -2.2785   -1.4906 H   0  0  0  0  0  0  0  0  0  0  0  0
    5.6010   -3.0517    0.0621 H   0  0  0  0  0  0  0  0  0  0  0  0
    4.2719   -1.9058   -0.0155 H   0  0  0  0  0  0  0  0  0  0  0  0
    8.0668   -2.1498    0.0145 H   0  0  0  0  0  0  0  0  0  0  0  0
    8.3210   -0.4735   -0.4520 H   0  0  0  0  0  0  0  0  0  0  0  0
    7.6396   -1.6121   -1.6288 H   0  0  0  0  0  0  0  0  0  0  0  0
   -2.1341    1.1061    0.2165 H   0  0  0  0  0  0  0  0  0  0  0  0
  1  2  2  0
  2  3  1  0
  3  4  2  0
  3  5  1  0
  5  6  1  0
  6  7  1  0
  7  8  1  0
  8  9  1  0
  9 10  1  0
  8 11  1  0
 11 12  1  0
 12 13  1  0
 13 14  2  0
 13 15  1  0
 15 16  1  0
 16 17  2  0
 17 18  1  0
 18 19  2  0
 19 20  1  0
 20 21  2  0
 21 22  1  0
 22 23  1  0
 23 24  1  0
 24 25  2  0
 25 26  1  0
 26 27  2  0
 27 28  1  0
 28 29  2  0
 29 30  1  0
 30 31  1  0
 31 32  1  0
 31 33  1  0
 22 34  2  0
 17 35  1  0
 35 36  1  0
 10  5  1  0
 36 15  2  0
 36  8  1  0
 34 18  1  0
 29 24  1  0
  1 37  1  0
  1 38  1  0
  2 39  1  0
  6 40  1  0
  6 41  1  0
  7 42  1  0
  7 43  1  0
  9 44  1  0
  9 45  1  0
 10 46  1  0
 10 47  1  0
 11 48  1  0
 11 49  1  0
 12 50  1  0
 16 51  1  0
 19 52  1  0
 20 53  1  0
 23 54  1  0
 25 55  1  0
 26 56  1  0
 27 57  1  0
 28 58  1  0
 31 59  1  0
 32 60  1  0
 32 61  1  0
 32 62  1  0
 33 63  1  0
 33 64  1  0
 33 65  1  0
 35 66  1  0
M  END
$$$$
