
     RDKit          3D

 52 56  0  0  0  0  0  0  0  0999 V2000
   -5.3138   -2.3155    2.9100 C   0  0  0  0  0  0  0  0  0  0  0  0
   -4.0757   -1.8294    2.3078 N   0  0  0  0  0  0  0  0  0  0  0  0
   -4.3239   -0.5788    1.5473 C   0  0  0  0  0  0  0  0  0  0  0  0
   -3.4367   -1.1587    0.4106 C   0  0  0  0  0  0  0  0  0  0  0  0
   -3.8063   -2.5298    1.0293 C   0  0  0  0  0  0  0  0  0  0  0  0
   -1.9768   -0.7560    0.4413 C   0  0  0  0  0  0  0  0  0  0  0  0
   -1.9528    0.1862   -0.6486 N   0  0  0  0  0  0  0  0  0  0  0  0
   -0.8213    0.9824   -0.9497 C   0  0  0  0  0  0  0  0  0  0  0  0
    0.4596    0.4750   -0.6769 C   0  0  0  0  0  0  0  0  0  0  0  0
    1.6432    1.1902   -1.0030 C   0  0  0  0  0  0  0  0  0  0  0  0
    2.9597    0.7357   -0.7801 C   0  0  0  0  0  0  0  0  0  0  0  0
    3.1524   -0.5101   -0.1266 N   0  0  0  0  0  0  0  0  0  0  0  0
    4.3512   -1.2536    0.0044 C   0  0  0  0  0  0  0  0  0  0  0  0
    5.3451   -1.2735   -0.9814 C   0  0  0  0  0  0  0  0  0  0  0  0
    6.4841   -2.0742   -0.8384 C   0  0  0  0  0  0  0  0  0  0  0  0
    6.6354   -2.8863    0.2856 C   0  0  0  0  0  0  0  0  0  0  0  0
    5.6409   -2.9027    1.2608 C   0  0  0  0  0  0  0  0  0  0  0  0
    5.8212   -3.9213    2.6374 Cl  0  0  0  0  0  0  0  0  0  0  0  0
    4.5087   -2.1019    1.1127 C   0  0  0  0  0  0  0  0  0  0  0  0
    3.5388   -2.1221    2.0448 F   0  0  0  0  0  0  0  0  0  0  0  0
    4.0349    1.4502   -1.1585 N   0  0  0  0  0  0  0  0  0  0  0  0
    3.7990    2.6309   -1.7355 C   0  0  0  0  0  0  0  0  0  0  0  0
    2.5979    3.1665   -1.9726 N   0  0  0  0  0  0  0  0  0  0  0  0
    1.5365    2.4405   -1.6123 C   0  0  0  0  0  0  0  0  0  0  0  0
    0.2688    2.9592   -1.8335 C   0  0  0  0  0  0  0  0  0  0  0  0
   -0.9207    2.2752   -1.4906 C   0  0  0  0  0  0  0  0  0  0  0  0
   -2.2125    3.0661   -1.6033 C   0  0  0  0  0  0  0  0  0  0  0  0
   -2.3799    4.1060   -0.4931 C   0  0  0  0  0  0  0  0  0  0  0  0
   -2.6819    3.3407    1.0912 Cl  0  0  0  0  0  0  0  0  0  0  0  0
   -2.9960   -0.0587   -1.5320 C   0  0  0  0  0  0  0  0  0  0  0  0
   -3.1372    0.3483   -2.6738 O   0  0  0  0  0  0  0  0  0  0  0  0
   -3.8895   -0.9021   -0.9369 O   0  0  0  0  0  0  0  0  0  0  0  0
   -5.1615   -3.3235    3.3106 H   0  0  0  0  0  0  0  0  0  0  0  0
   -5.5970   -1.6711    3.7491 H   0  0  0  0  0  0  0  0  0  0  0  0
   -6.1587   -2.3530    2.2119 H   0  0  0  0  0  0  0  0  0  0  0  0
   -3.9476    0.3249    2.0367 H   0  0  0  0  0  0  0  0  0  0  0  0
   -5.3629   -0.3964    1.2429 H   0  0  0  0  0  0  0  0  0  0  0  0
   -4.6695   -3.0091    0.5491 H   0  0  0  0  0  0  0  0  0  0  0  0
   -2.9943   -3.2618    1.0826 H   0  0  0  0  0  0  0  0  0  0  0  0
   -1.3331   -1.6077    0.1973 H   0  0  0  0  0  0  0  0  0  0  0  0
   -1.6616   -0.2837    1.3766 H   0  0  0  0  0  0  0  0  0  0  0  0
    0.5646   -0.5227   -0.2594 H   0  0  0  0  0  0  0  0  0  0  0  0
    2.6446   -0.5096    0.7567 H   0  0  0  0  0  0  0  0  0  0  0  0
    5.2413   -0.6682   -1.8791 H   0  0  0  0  0  0  0  0  0  0  0  0
    7.2492   -2.0657   -1.6117 H   0  0  0  0  0  0  0  0  0  0  0  0
    7.5221   -3.5064    0.3890 H   0  0  0  0  0  0  0  0  0  0  0  0
    4.6639    3.2118   -2.0369 H   0  0  0  0  0  0  0  0  0  0  0  0
    0.2046    3.9553   -2.2720 H   0  0  0  0  0  0  0  0  0  0  0  0
   -3.1022    2.4381   -1.6140 H   0  0  0  0  0  0  0  0  0  0  0  0
   -2.2104    3.5793   -2.5741 H   0  0  0  0  0  0  0  0  0  0  0  0
   -3.2439    4.7427   -0.7064 H   0  0  0  0  0  0  0  0  0  0  0  0
   -1.5001    4.7481   -0.3901 H   0  0  0  0  0  0  0  0  0  0  0  0
  1  2  1  0
  2  3  1  0
  3  4  1  0
  4  5  1  0
  4  6  1  0
  6  7  1  0
  7  8  1  0
  8  9  2  0
  9 10  1  0
 10 11  2  0
 11 12  1  0
 12 13  1  0
 13 14  2  0
 14 15  1  0
 15 16  2  0
 16 17  1  0
 17 18  1  0
 17 19  2  0
 19 20  1  0
 11 21  1  0
 21 22  2  0
 22 23  1  0
 23 24  2  0
 24 25  1  0
 25 26  2  0
 26 27  1  0
 27 28  1  0
 28 29  1  0
  7 30  1  0
 30 31  2  0
 30 32  1  0
  5  2  1  0
 26  8  1  0
 32  4  1  0
 24 10  1  0
 19 13  1  0
  1 33  1  0
  1 34  1  0
  1 35  1  0
  3 36  1  0
  3 37  1  0
  5 38  1  0
  5 39  1  0
  6 40  1  0
  6 41  1  0
  9 42  1  0
 12 43  1  0
 14 44  1  0
 15 45  1  0
 16 46  1  0
 22 47  1  0
 25 48  1  0
 27 49  1  0
 27 50  1  0
 28 51  1  0
 28 52  1  0
M  END
$$$$
